/*--------------------------------*- C++ -*----------------------------------*\
| =========                 |                                                 |
| \\      /  F ield         | OpenFOAM: The Open Source CFD Toolbox           |
|  \\    /   O peration     | Version:  2412                                  |
|   \\  /    A nd           | Website:  www.openfoam.com                      |
|    \\/     M anipulation  |                                                 |
\*---------------------------------------------------------------------------*/
FoamFile
{
    version     2.0;
    format      binary;
    arch        "LSB;label=32;scalar=64";
    class       polyBoundaryMesh;
    location    "constant/polyMesh";
    object      boundary;
}
// * * * * * * * * * * * * * * * * * * * * * * * * * * * * * * * * * * * * * //

7
(
    inlet
    {
        type            patch;
        nFaces          85;
        startFace       111190;
    }
    outlet
    {
        type            patch;
        nFaces          85;
        startFace       111275;
    }
    surface
    {
        type            symmetryPlane;
        inGroups        1(symmetryPlane);
        nFaces          578;
        startFace       111360;
    }
    bottom
    {
        type            wall;
        inGroups        1(wall);
        nFaces          578;
        startFace       111938;
    }
    lateralfront
    {
        type            empty;
        inGroups        1(empty);
        nFaces          55942;
        startFace       112516;
    }
    lateralback
    {
        type            empty;
        inGroups        1(empty);
        nFaces          55942;
        startFace       168458;
    }
    cylinder
    {
        type            wall;
        inGroups        1(wall);
        nFaces          1496;
        startFace       224400;
    }
)

// ************************************************************************* //
