/*--------------------------------*- C++ -*----------------------------------*\
| =========                 |                                                 |
| \\      /  F ield         | OpenFOAM: The Open Source CFD Toolbox           |
|  \\    /   O peration     | Version:  2412                                  |
|   \\  /    A nd           | Website:  [www.openfoam.com](https://www.openfoam.com)  |
|    \/     M anipulation  |                                                 |
\*---------------------------------------------------------------------------*/
/*---------------------------------------------------------------------------*\
  Project     : 2D Pipeline Scour Morphodynamics
  Author      : Divyansh Kumar Singh
  Level       : Postgraduate Research
  Description : Simulation of hydrodynamics and morphodynamic scour around
                a pipeline using the sedExnerFoam solver.
\*---------------------------------------------------------------------------*/
FoamFile
{
    version     2.0;
    format      ascii;
    class       dictionary;
    object      blockMeshDict;
}

scale   1.0;

vertices
(
    (-0.75   0.205      0.001) // 0: front-top-left
    ( 1      0.205      0.001) // 1: front-top-right
    (-0.75   0.08       0.001) // 2: front-mid-left
    ( 1      0.08       0.001) // 3: front-mid-right
    (-0.75  -0.026      0.001) // 4: front-bed-left
    ( 1     -0.026      0.001) // 5: front-bed-right

    (-0.75   0.205      0    ) // 6: back-top-left
    ( 1      0.205      0    ) // 7: back-top-right
    (-0.75   0.08       0    ) // 8: back-mid-left
    ( 1      0.08       0    ) // 9: back-mid-right
    (-0.75  -0.026      0    ) // 10: back-bed-left
    ( 1     -0.026      0    ) // 11: back-bed-right
);

blocks
(
    hex (8 9 7 6 2 3 1 0) (578 20 1) simpleGrading (1 4 1)
    hex (10 11 9 8 4 5 3 2) (578 65 1) simpleGrading (1 10 1)
);

edges
(
);

boundary
(
    inlet
    {
        type patch;
        faces
        (
            (4 10 8 2)
            (2 8 6 0)
        );
    }

    outlet
    {
        type patch;
        faces
        (
            (7 1 3 9)
            (9 3 5 11)
        );
    }

    surface
    {
        type symmetryPlane;
        faces
        (
            (6 7 1 0)
        );
    }

    bottom
    {
        type wall;
        faces
        (
            (10 11 5 4)
        );
    }

    lateralfront
    {
        type empty;
        faces
        (
            (4 5 3 2)
            (2 3 1 0)
        );
    }

    lateralback
    {
        type empty;
        faces
        (
            (10 11 9 8)
            (8 9 7 6)
        );
    }
);

mergePatchPairs
(
);