/*--------------------------------*- C++ -*----------------------------------*\
| =========                 |                                                 |
| \\      /  F ield         | OpenFOAM: The Open Source CFD Toolbox           |
|  \\    /   O peration     | Version:  2412                                  |
|   \\  /    A nd           | Website:  www.openfoam.com                      |
|    \/     M anipulation  |                                                 |
\*---------------------------------------------------------------------------*/
/*---------------------------------------------------------------------------*\
  Project     : 2D Pipeline Scour Morphodynamics
  Author      : Divyansh Kumar Singh
  Level       : Postgraduate Research
  Description : Simulation of hydrodynamics and morphodynamic scour around
                a pipeline using the sedExnerFoam solver.
\*---------------------------------------------------------------------------*/
// Finite-area numerical schemes for Exner equation on faMesh (bed surface).
// Euler ddt matches the 3D hydrodynamic solver.
// linearUpwind div(qs) for stability near steep scour fronts.
FoamFile
{
    version     2.0;
    format      ascii;
    class       dictionary;
    location    "system";
    object      faSchemes;
}

ddtSchemes
{
    default         Euler;
}

gradSchemes
{
    default         Gauss linear;
    grad(h)         Gauss linear;
    grad(qs)        Gauss linear;
}

divSchemes
{
    default         none;
    div(qs)         Gauss linearUpwind grad(h);
}

laplacianSchemes
{
    default         Gauss linear corrected;
}

interpolationSchemes
{
    default         linear;
}

snGradSchemes
{
    default         corrected;
}

// ************************************************************************* //
