/*--------------------------------*- C++ -*----------------------------------*\
| =========                 |                                                 |
| \\      /  F ield         | OpenFOAM: The Open Source CFD Toolbox           |
|  \\    /   O peration     | Version:  2412                                  |
|   \\  /    A nd           | Website:  www.openfoam.com                      |
|    \/     M anipulation  |                                                 |
\*---------------------------------------------------------------------------*/
/*---------------------------------------------------------------------------*\
  Project     : 2D Pipeline Scour Morphodynamics
  Author      : Divyansh Kumar Singh
  Level       : Postgraduate Research
  Description : Simulation of hydrodynamics and morphodynamic scour around
                a pipeline using the sedExnerFoam solver.
\*---------------------------------------------------------------------------*/
FoamFile
{
    version     2.0;
    format      ascii;
    class       dictionary;
    location    "system";
    object      fvSchemes;
}

ddtSchemes
{
    default         Euler;
}

gradSchemes
{
    default             Gauss linear;
    grad(U)             cellLimited Gauss linear 1;
    grad(k)             cellLimited Gauss linear 1;
    grad(omega)         cellLimited Gauss linear 1;
}

divSchemes
{
    default                              none;
    div(phi,U)                           Gauss linearUpwind grad(U);
    div(phi,k)                           Gauss linearUpwind grad(k);
    div(phi,omega)                       Gauss linearUpwind grad(omega);
    // Use upwind for Cs to prevent unphysical negative sediment concentrations
    div(phi,Cs)                          Gauss upwind;
    // phip = particle settling flux; upwind required for stability
    div(phip,Cs)                         Gauss upwind;
    // Ws settling velocity divergence term
    div(phi,Ws)                          Gauss upwind;
    div((nuEff*dev(T(grad(U)))))         Gauss linear;
    div((nuEff*dev2(T(grad(U)))))        Gauss linear;
}

laplacianSchemes
{
    default                                  Gauss linear corrected;
    laplacian(nuEff,U)                       Gauss linear corrected;
    laplacian((1|A(U)),p_rgh)                Gauss linear corrected;
    laplacian((1|A(U)),p)                    Gauss linear corrected;
    laplacian(DkEff,k)                       Gauss linear corrected;
    laplacian(DomegaEff,omega)               Gauss linear corrected;
    laplacian(diffusivity,cellDisplacement)  Gauss linear corrected;
}

interpolationSchemes
{
    default         linear;
}

snGradSchemes
{
    default         corrected;
}

fluxRequired
{
    default     no;
    p_rgh       ;
    p           ;
    pcorr       ;
}

wallDist
{
    method      meshWave;
}

// ************************************************************************* //
