/*--------------------------------*- C++ -*----------------------------------*\
| =========                 |                                                 |
| \\      /  F ield         | OpenFOAM: The Open Source CFD Toolbox           |
|  \\    /   O peration     | Version:  2412                                  |
|   \\  /    A nd           | Website:  www.openfoam.com                      |
|    \/     M anipulation  |                                                 |
\*---------------------------------------------------------------------------*/
/*---------------------------------------------------------------------------*\
  Project     : 2D Pipeline Scour Morphodynamics
  Author      : Divyansh Kumar Singh
  Level       : Postgraduate Research
  Description : Simulation of hydrodynamics and morphodynamic scour around
                a pipeline using the sedExnerFoam solver.
\*---------------------------------------------------------------------------*/
FoamFile
{
    version     2.0;
    format      ascii;
    class       dictionary;
    object      topoSetDict;
}
// * * * * * * * * * * * * * * * * * * * * * * * * * * * * * * * * * * * * * //

actions
(
    {
        name    bottom;
        type    faceSet;
        action  new;
        source  patchToFace;
        patch   bottom;
    }
);

// ************************************************************************* //
